data_image0
_chemical_formula_structural       OCOCH3COC2H3CO4H2OCOCH3COC2H3CO4H2OCOCH3COC2H3CO4H2OCOCH3COC2H3CO4H2OCOCH3COC2H3CO4H2OCOCH3COC2H3CO4H2OCOCH3COC2H3CO4H2OCOCH3COC2H3CO4H2OCN2C5NH3OH3NC2H4OCN2C5OH3NH3NC2H4OCN2C5NH3OH3NC2H4OCN2C5OH3NH3NC2H4OH2OH2OH2OH2OH2OH2OH2OH2
_chemical_formula_sum              "O72 C80 H120 N16"
_cell_length_a       16.7407
_cell_length_b       9.5561
_cell_length_c       16.5918
_cell_angle_alpha    90
_cell_angle_beta     90.525
_cell_angle_gamma    90

_space_group_name_H-M_alt    "P 1"
_space_group_IT_number       1

loop_
  _space_group_symop_operation_xyz
  'x, y, z'

loop_
  _atom_site_type_symbol
  _atom_site_label
  _atom_site_symmetry_multiplicity
  _atom_site_fract_x
  _atom_site_fract_y
  _atom_site_fract_z
  _atom_site_occupancy
  O   O2        1.0  0.37748  0.34608  0.37754  1.0000
  C   C1        1.0  0.39394  0.33202  0.44864  1.0000
  O   O3        1.0  0.41641  0.43554  0.49626  1.0000
  C   C2        1.0  0.38900  0.19472  0.49263  1.0000
  H   H3        1.0  0.41640  0.50900  0.46960  1.0000
  H   H2A       1.0  0.34180  0.19660  0.52820  1.0000
  H   H2B       1.0  0.43710  0.18440  0.52740  1.0000
  C   C3        1.0  0.38267  0.06629  0.43692  1.0000
  O   O4        1.0  0.45411  0.04782  0.39351  1.0000
  C   C4        1.0  0.37357  0.93703  0.49187  1.0000
  C   C6        1.0  0.31150  0.07806  0.37842  1.0000
  H   H4        1.0  0.45100  0.09300  0.35190  1.0000
  H   H4A       1.0  0.42070  0.93160  0.52820  1.0000
  H   H4B       1.0  0.32580  0.95010  0.52580  1.0000
  C   C5        1.0  0.36552  0.79966  0.44719  1.0000
  O   O7        1.0  0.24435  0.10577  0.41553  1.0000
  O   O8        1.0  0.31797  0.05926  0.30636  1.0000
  O   O5        1.0  0.29802  0.78882  0.40673  1.0000
  O   O6        1.0  0.41530  0.70768  0.45074  1.0000
  H   H7        1.0  0.20220  0.10800  0.37910  1.0000
  H   H5        1.0  0.29260  0.70400  0.38240  1.0000
  O   O2        1.0  0.62252  0.34608  0.12246  1.0000
  C   C1        1.0  0.60606  0.33202  0.05136  1.0000
  O   O3        1.0  0.58359  0.43554  0.00374  1.0000
  C   C2        1.0  0.61100  0.19472  0.00737  1.0000
  H   H3        1.0  0.58360  0.50900  0.03040  1.0000
  H   H2A       1.0  0.65820  0.19660  0.97180  1.0000
  H   H2B       1.0  0.56290  0.18440  0.97260  1.0000
  C   C3        1.0  0.61733  0.06629  0.06308  1.0000
  O   O4        1.0  0.54589  0.04782  0.10649  1.0000
  C   C4        1.0  0.62643  0.93703  0.00813  1.0000
  C   C6        1.0  0.68850  0.07806  0.12158  1.0000
  H   H4        1.0  0.54900  0.09300  0.14810  1.0000
  H   H4A       1.0  0.57930  0.93160  0.97180  1.0000
  H   H4B       1.0  0.67420  0.95010  0.97420  1.0000
  C   C5        1.0  0.63448  0.79966  0.05281  1.0000
  O   O7        1.0  0.75565  0.10577  0.08447  1.0000
  O   O8        1.0  0.68203  0.05926  0.19364  1.0000
  O   O5        1.0  0.70198  0.78882  0.09327  1.0000
  O   O6        1.0  0.58470  0.70768  0.04926  1.0000
  H   H7        1.0  0.79780  0.10800  0.12090  1.0000
  H   H5        1.0  0.70740  0.70400  0.11760  1.0000
  O   O2        1.0  0.87748  0.84608  0.37754  1.0000
  C   C1        1.0  0.89394  0.83202  0.44864  1.0000
  O   O3        1.0  0.91641  0.93554  0.49626  1.0000
  C   C2        1.0  0.88900  0.69472  0.49263  1.0000
  H   H3        1.0  0.91640  0.00900  0.46960  1.0000
  H   H2A       1.0  0.84180  0.69660  0.52820  1.0000
  H   H2B       1.0  0.93710  0.68440  0.52740  1.0000
  C   C3        1.0  0.88267  0.56629  0.43692  1.0000
  O   O4        1.0  0.95411  0.54782  0.39351  1.0000
  C   C4        1.0  0.87357  0.43703  0.49187  1.0000
  C   C6        1.0  0.81150  0.57806  0.37842  1.0000
  H   H4        1.0  0.95100  0.59300  0.35190  1.0000
  H   H4A       1.0  0.92070  0.43160  0.52820  1.0000
  H   H4B       1.0  0.82580  0.45010  0.52580  1.0000
  C   C5        1.0  0.86552  0.29966  0.44719  1.0000
  O   O7        1.0  0.74435  0.60577  0.41553  1.0000
  O   O8        1.0  0.81797  0.55926  0.30636  1.0000
  O   O5        1.0  0.79802  0.28882  0.40673  1.0000
  O   O6        1.0  0.91530  0.20768  0.45074  1.0000
  H   H7        1.0  0.70220  0.60800  0.37910  1.0000
  H   H5        1.0  0.79260  0.20400  0.38240  1.0000
  O   O2        1.0  0.12252  0.84608  0.12246  1.0000
  C   C1        1.0  0.10606  0.83202  0.05136  1.0000
  O   O3        1.0  0.08359  0.93554  0.00374  1.0000
  C   C2        1.0  0.11100  0.69472  0.00737  1.0000
  H   H3        1.0  0.08360  0.00900  0.03040  1.0000
  H   H2A       1.0  0.15820  0.69660  0.97180  1.0000
  H   H2B       1.0  0.06290  0.68440  0.97260  1.0000
  C   C3        1.0  0.11733  0.56629  0.06308  1.0000
  O   O4        1.0  0.04589  0.54782  0.10649  1.0000
  C   C4        1.0  0.12643  0.43703  0.00813  1.0000
  C   C6        1.0  0.18850  0.57806  0.12158  1.0000
  H   H4        1.0  0.04900  0.59300  0.14810  1.0000
  H   H4A       1.0  0.07930  0.43160  0.97180  1.0000
  H   H4B       1.0  0.17420  0.45010  0.97420  1.0000
  C   C5        1.0  0.13448  0.29966  0.05281  1.0000
  O   O7        1.0  0.25565  0.60577  0.08447  1.0000
  O   O8        1.0  0.18203  0.55926  0.19364  1.0000
  O   O5        1.0  0.20198  0.28882  0.09327  1.0000
  O   O6        1.0  0.08470  0.20768  0.04926  1.0000
  H   H7        1.0  0.29780  0.60800  0.12090  1.0000
  H   H5        1.0  0.20740  0.20400  0.11760  1.0000
  O   O2        1.0  0.62252  0.65392  0.62246  1.0000
  C   C1        1.0  0.60606  0.66798  0.55136  1.0000
  O   O3        1.0  0.58359  0.56446  0.50374  1.0000
  C   C2        1.0  0.61100  0.80528  0.50737  1.0000
  H   H3        1.0  0.58360  0.49100  0.53040  1.0000
  H   H2A       1.0  0.65820  0.80340  0.47180  1.0000
  H   H2B       1.0  0.56290  0.81560  0.47260  1.0000
  C   C3        1.0  0.61733  0.93371  0.56308  1.0000
  O   O4        1.0  0.54589  0.95218  0.60649  1.0000
  C   C4        1.0  0.62643  0.06297  0.50813  1.0000
  C   C6        1.0  0.68850  0.92194  0.62158  1.0000
  H   H4        1.0  0.54900  0.90700  0.64810  1.0000
  H   H4A       1.0  0.57930  0.06840  0.47180  1.0000
  H   H4B       1.0  0.67420  0.04990  0.47420  1.0000
  C   C5        1.0  0.63448  0.20034  0.55281  1.0000
  O   O7        1.0  0.75565  0.89423  0.58447  1.0000
  O   O8        1.0  0.68203  0.94074  0.69364  1.0000
  O   O5        1.0  0.70198  0.21118  0.59327  1.0000
  O   O6        1.0  0.58470  0.29232  0.54926  1.0000
  H   H7        1.0  0.79780  0.89200  0.62090  1.0000
  H   H5        1.0  0.70740  0.29600  0.61760  1.0000
  O   O2        1.0  0.37748  0.65392  0.87754  1.0000
  C   C1        1.0  0.39394  0.66798  0.94864  1.0000
  O   O3        1.0  0.41641  0.56446  0.99626  1.0000
  C   C2        1.0  0.38900  0.80528  0.99263  1.0000
  H   H3        1.0  0.41640  0.49100  0.96960  1.0000
  H   H2A       1.0  0.34180  0.80340  0.02820  1.0000
  H   H2B       1.0  0.43710  0.81560  0.02740  1.0000
  C   C3        1.0  0.38267  0.93371  0.93692  1.0000
  O   O4        1.0  0.45411  0.95218  0.89351  1.0000
  C   C4        1.0  0.37357  0.06297  0.99187  1.0000
  C   C6        1.0  0.31150  0.92194  0.87842  1.0000
  H   H4        1.0  0.45100  0.90700  0.85190  1.0000
  H   H4A       1.0  0.42070  0.06840  0.02820  1.0000
  H   H4B       1.0  0.32580  0.04990  0.02580  1.0000
  C   C5        1.0  0.36552  0.20034  0.94719  1.0000
  O   O7        1.0  0.24435  0.89423  0.91553  1.0000
  O   O8        1.0  0.31797  0.94074  0.80636  1.0000
  O   O5        1.0  0.29802  0.21118  0.90673  1.0000
  O   O6        1.0  0.41530  0.29232  0.95074  1.0000
  H   H7        1.0  0.20220  0.89200  0.87910  1.0000
  H   H5        1.0  0.29260  0.29600  0.88240  1.0000
  O   O2        1.0  0.12252  0.15392  0.62246  1.0000
  C   C1        1.0  0.10606  0.16798  0.55136  1.0000
  O   O3        1.0  0.08359  0.06446  0.50374  1.0000
  C   C2        1.0  0.11100  0.30528  0.50737  1.0000
  H   H3        1.0  0.08360  0.99100  0.53040  1.0000
  H   H2A       1.0  0.15820  0.30340  0.47180  1.0000
  H   H2B       1.0  0.06290  0.31560  0.47260  1.0000
  C   C3        1.0  0.11733  0.43371  0.56308  1.0000
  O   O4        1.0  0.04589  0.45218  0.60649  1.0000
  C   C4        1.0  0.12643  0.56297  0.50813  1.0000
  C   C6        1.0  0.18850  0.42194  0.62158  1.0000
  H   H4        1.0  0.04900  0.40700  0.64810  1.0000
  H   H4A       1.0  0.07930  0.56840  0.47180  1.0000
  H   H4B       1.0  0.17420  0.54990  0.47420  1.0000
  C   C5        1.0  0.13448  0.70034  0.55281  1.0000
  O   O7        1.0  0.25565  0.39423  0.58447  1.0000
  O   O8        1.0  0.18203  0.44074  0.69364  1.0000
  O   O5        1.0  0.20198  0.71118  0.59327  1.0000
  O   O6        1.0  0.08470  0.79232  0.54926  1.0000
  H   H7        1.0  0.29780  0.39200  0.62090  1.0000
  H   H5        1.0  0.20740  0.79600  0.61760  1.0000
  O   O2        1.0  0.87748  0.15392  0.87754  1.0000
  C   C1        1.0  0.89394  0.16798  0.94864  1.0000
  O   O3        1.0  0.91641  0.06446  0.99626  1.0000
  C   C2        1.0  0.88900  0.30528  0.99263  1.0000
  H   H3        1.0  0.91640  0.99100  0.96960  1.0000
  H   H2A       1.0  0.84180  0.30340  0.02820  1.0000
  H   H2B       1.0  0.93710  0.31560  0.02740  1.0000
  C   C3        1.0  0.88267  0.43371  0.93692  1.0000
  O   O4        1.0  0.95411  0.45218  0.89351  1.0000
  C   C4        1.0  0.87357  0.56297  0.99187  1.0000
  C   C6        1.0  0.81150  0.42194  0.87842  1.0000
  H   H4        1.0  0.95100  0.40700  0.85190  1.0000
  H   H4A       1.0  0.92070  0.56840  0.02820  1.0000
  H   H4B       1.0  0.82580  0.54990  0.02580  1.0000
  C   C5        1.0  0.86552  0.70034  0.94719  1.0000
  O   O7        1.0  0.74435  0.39423  0.91553  1.0000
  O   O8        1.0  0.81797  0.44074  0.80636  1.0000
  O   O5        1.0  0.79802  0.71118  0.90673  1.0000
  O   O6        1.0  0.91530  0.79232  0.95074  1.0000
  H   H7        1.0  0.70220  0.39200  0.87910  1.0000
  H   H5        1.0  0.79260  0.79600  0.88240  1.0000
  O   O9        1.0  0.50000  0.80305  0.75000  1.0000
  C   C7        1.0  0.50000  0.67380  0.75000  1.0000
  N   N1        1.0  0.43998  0.59999  0.71173  1.0000
  N   N1        1.0  0.56002  0.59999  0.78827  1.0000
  C   C8        1.0  0.43631  0.45586  0.71303  1.0000
  C   C10       1.0  0.37434  0.67831  0.67333  1.0000
  C   C8        1.0  0.56369  0.45586  0.78697  1.0000
  C   C10       1.0  0.62566  0.67831  0.82667  1.0000
  C   C9        1.0  0.50000  0.38705  0.75000  1.0000
  N   N2        1.0  0.38360  0.36130  0.68640  1.0000
  H   H10A      1.0  0.32660  0.67200  0.70680  1.0000
  H   H10B      1.0  0.36280  0.63850  0.62000  1.0000
  H   H10C      1.0  0.38980  0.77660  0.66750  1.0000
  O   O10       1.0  0.62460  0.40070  0.81950  1.0000
  H   H10A      1.0  0.67340  0.67200  0.79320  1.0000
  H   H10B      1.0  0.63720  0.63850  0.88000  1.0000
  H   H10C      1.0  0.61020  0.77660  0.83250  1.0000
  N   N3        1.0  0.48600  0.24550  0.74380  1.0000
  C   C11       1.0  0.41535  0.23670  0.70560  1.0000
  C   C12       1.0  0.53833  0.13310  0.77039  1.0000
  H   H11       1.0  0.39010  0.15020  0.69330  1.0000
  H   H12A      1.0  0.58910  0.13900  0.74170  1.0000
  H   H12B      1.0  0.51290  0.04280  0.75900  1.0000
  H   H12C      1.0  0.54820  0.14170  0.82850  1.0000
  O   O9        1.0  0.00000  0.30305  0.75000  1.0000
  C   C7        1.0  0.00000  0.17380  0.75000  1.0000
  N   N1        1.0  0.93998  0.09999  0.71173  1.0000
  N   N1        1.0  0.06002  0.09999  0.78827  1.0000
  C   C8        1.0  0.93631  0.95586  0.71303  1.0000
  C   C10       1.0  0.87434  0.17831  0.67333  1.0000
  C   C8        1.0  0.06369  0.95586  0.78697  1.0000
  C   C10       1.0  0.12566  0.17831  0.82667  1.0000
  C   C9        1.0  0.00000  0.88705  0.75000  1.0000
  O   O10       1.0  0.87540  0.90070  0.68050  1.0000
  H   H10A      1.0  0.82660  0.17200  0.70680  1.0000
  H   H10B      1.0  0.86280  0.13850  0.62000  1.0000
  H   H10C      1.0  0.88980  0.27660  0.66750  1.0000
  N   N2        1.0  0.11640  0.86130  0.81360  1.0000
  H   H10A      1.0  0.17340  0.17200  0.79320  1.0000
  H   H10B      1.0  0.13720  0.13850  0.88000  1.0000
  H   H10C      1.0  0.11020  0.27660  0.83250  1.0000
  N   N3        1.0  0.01400  0.74550  0.75620  1.0000
  C   C11       1.0  0.08465  0.73670  0.79440  1.0000
  C   C12       1.0  0.96167  0.63310  0.72961  1.0000
  H   H11       1.0  0.10990  0.65020  0.80670  1.0000
  H   H12A      1.0  0.91090  0.63900  0.75830  1.0000
  H   H12B      1.0  0.98710  0.54280  0.74100  1.0000
  H   H12C      1.0  0.95180  0.64170  0.67150  1.0000
  O   O9        1.0  0.50000  0.19695  0.25000  1.0000
  C   C7        1.0  0.50000  0.32620  0.25000  1.0000
  N   N1        1.0  0.56002  0.40001  0.28827  1.0000
  N   N1        1.0  0.43998  0.40001  0.21173  1.0000
  C   C8        1.0  0.56369  0.54414  0.28697  1.0000
  C   C10       1.0  0.62566  0.32169  0.32667  1.0000
  C   C8        1.0  0.43631  0.54414  0.21303  1.0000
  C   C10       1.0  0.37434  0.32169  0.17333  1.0000
  C   C9        1.0  0.50000  0.61295  0.25000  1.0000
  N   N2        1.0  0.61640  0.63870  0.31360  1.0000
  H   H10A      1.0  0.67340  0.32800  0.29320  1.0000
  H   H10B      1.0  0.63720  0.36150  0.38000  1.0000
  H   H10C      1.0  0.61020  0.22340  0.33250  1.0000
  O   O10       1.0  0.37540  0.59930  0.18050  1.0000
  H   H10A      1.0  0.32660  0.32800  0.20680  1.0000
  H   H10B      1.0  0.36280  0.36150  0.12000  1.0000
  H   H10C      1.0  0.38980  0.22340  0.16750  1.0000
  N   N3        1.0  0.51400  0.75450  0.25620  1.0000
  C   C11       1.0  0.58465  0.76330  0.29440  1.0000
  C   C12       1.0  0.46167  0.86690  0.22961  1.0000
  H   H11       1.0  0.60990  0.84980  0.30670  1.0000
  H   H12A      1.0  0.41090  0.86100  0.25830  1.0000
  H   H12B      1.0  0.48710  0.95720  0.24100  1.0000
  H   H12C      1.0  0.45180  0.85830  0.17150  1.0000
  O   O9        1.0  0.00000  0.69695  0.25000  1.0000
  C   C7        1.0  0.00000  0.82620  0.25000  1.0000
  N   N1        1.0  0.06002  0.90001  0.28827  1.0000
  N   N1        1.0  0.93998  0.90001  0.21173  1.0000
  C   C8        1.0  0.06369  0.04414  0.28697  1.0000
  C   C10       1.0  0.12566  0.82169  0.32667  1.0000
  C   C8        1.0  0.93631  0.04414  0.21303  1.0000
  C   C10       1.0  0.87434  0.82169  0.17333  1.0000
  C   C9        1.0  0.00000  0.11295  0.25000  1.0000
  O   O10       1.0  0.12460  0.09930  0.31950  1.0000
  H   H10A      1.0  0.17340  0.82800  0.29320  1.0000
  H   H10B      1.0  0.13720  0.86150  0.38000  1.0000
  H   H10C      1.0  0.11020  0.72340  0.33250  1.0000
  N   N2        1.0  0.88360  0.13870  0.18640  1.0000
  H   H10A      1.0  0.82660  0.82800  0.20680  1.0000
  H   H10B      1.0  0.86280  0.86150  0.12000  1.0000
  H   H10C      1.0  0.88980  0.72340  0.16750  1.0000
  N   N3        1.0  0.98600  0.25450  0.24380  1.0000
  C   C11       1.0  0.91535  0.26330  0.20560  1.0000
  C   C12       1.0  0.03833  0.36690  0.27039  1.0000
  H   H11       1.0  0.89010  0.34980  0.19330  1.0000
  H   H12A      1.0  0.08910  0.36100  0.24170  1.0000
  H   H12B      1.0  0.01290  0.45720  0.25900  1.0000
  H   H12C      1.0  0.04820  0.35830  0.32850  1.0000
  O   O1        1.0  0.26331  0.55034  0.34092  1.0000
  H   H1A       1.0  0.24590  0.55100  0.29120  1.0000
  H   H1B       1.0  0.29890  0.48500  0.34400  1.0000
  O   O1        1.0  0.73669  0.55034  0.15908  1.0000
  H   H1A       1.0  0.75410  0.55100  0.20880  1.0000
  H   H1B       1.0  0.70110  0.48500  0.15600  1.0000
  O   O1        1.0  0.76331  0.05034  0.34092  1.0000
  H   H1A       1.0  0.74590  0.05100  0.29120  1.0000
  H   H1B       1.0  0.79890  0.98500  0.34400  1.0000
  O   O1        1.0  0.23669  0.05034  0.15908  1.0000
  H   H1A       1.0  0.25410  0.05100  0.20880  1.0000
  H   H1B       1.0  0.20110  0.98500  0.15600  1.0000
  O   O1        1.0  0.73669  0.44966  0.65908  1.0000
  H   H1A       1.0  0.75410  0.44900  0.70880  1.0000
  H   H1B       1.0  0.70110  0.51500  0.65600  1.0000
  O   O1        1.0  0.26331  0.44966  0.84092  1.0000
  H   H1A       1.0  0.24590  0.44900  0.79120  1.0000
  H   H1B       1.0  0.29890  0.51500  0.84400  1.0000
  O   O1        1.0  0.23669  0.94966  0.65908  1.0000
  H   H1A       1.0  0.25410  0.94900  0.70880  1.0000
  H   H1B       1.0  0.20110  0.01500  0.65600  1.0000
  O   O1        1.0  0.76331  0.94966  0.84092  1.0000
  H   H1A       1.0  0.74590  0.94900  0.79120  1.0000
  H   H1B       1.0  0.79890  0.01500  0.84400  1.0000
